64

C         -7.57502        4.25058        0.55847
C         -8.01217        3.05496        1.41116
C         -9.00234        2.20304        0.62673
C         -8.34991        1.79072       -0.68572
C         -6.85579        2.21421       -0.71547
C         -6.75796        3.77275       -0.68080
C         -5.29465        4.32816       -0.56946
C         -4.30142        3.40305        0.12340
C         -4.76567        2.27352        0.71055
C         -6.17972        1.76441        0.59799
H         -7.01342        4.95260        1.18559
H         -8.45730        4.81265        0.22381
O         -8.61597        3.52120        2.59994
H         -9.94109        2.73983        0.44533
H         -9.26772        1.30807        1.20375
H         -8.88596        2.24566       -1.52836
H         -8.45218        0.70447       -0.80337
C         -6.22147        1.54743       -1.94295
H         -7.23576        4.19357       -1.57524
H         -4.13864        1.67709        1.36365
H         -6.16730        0.66945        0.65796
O         -6.88536        2.24950        1.75347
H         -8.74141        2.72405        3.14007
H         -6.57249        2.01334       -2.86934
H         -6.48966        0.48497       -1.99053
H         -5.13101        1.56905       -1.92562
C         -4.75731        4.86759       -1.90169
C         -3.42777        5.58002       -1.68068
C         -2.30212        4.75162       -1.00341
C         -2.84601        3.95468        0.27966
H         -5.34241        5.22242        0.06957
H         -5.46699        5.61020       -2.28710
H         -3.64919        6.45678       -1.05827
H         -3.09090        5.98009       -2.63766
C         -1.10598        5.71954       -0.66485
O         -2.97292        4.72367        1.47768
O         -4.64361        3.88134       -2.91218
H         -4.10394        3.15885       -2.54970
C         -1.69301        3.59721       -1.85154
C         -1.81796        2.78667        0.37819
C         -1.44416        2.54845       -1.04809
N         -1.46448        6.91775        0.09926
C         -1.55502        6.72370        1.55152
C         -1.82521        5.30743        2.06122
C         -0.57848        8.04206       -0.20748
H         -0.70092        6.06231       -1.62144
H         -0.27073        5.18822       -0.18901
C         -1.39094        3.62255       -3.35226
H         -2.20470        1.87170        0.82746
H         -0.91152        3.02471        0.93776
H         -1.00987        1.61360       -1.36554
H         -2.36077        7.37743        1.90742
H         -0.63415        7.06094        2.04632
H         -2.03023        5.37882        3.13603
H         -0.93328        4.68480        1.97910
H         -0.62734        8.29506       -1.27247
H          0.46448        7.82050        0.04735
H         -0.88691        8.93992        0.33968
C         -0.83546        4.92008       -3.94229
O         -0.63615        2.41528       -3.71129
H         -2.34994        3.46801       -3.85749
H          0.10931        5.21021       -3.47345
H         -1.52180        5.75979       -3.83787
H         -0.65996        4.80892       -5.01841
